casefile/temp/WECC240_v03_Mod_NewMVA_month_4_day_4_hour_4_step3_addgen_remgen.raw
@!IC, SBASE,REV,XFRRAT,NXFRAT,BASFRQ
0,   100.00, 34,     0,     1, 60.00     / PSS(R)E-34.8    MON, MAR 21 2022  15:57
WECC 240 SYSTEM, V0.2,  MODIFIED BY NREL, INTERNAL USE ONLY
CONTACT: HAOYU.YUAN@NREL.GOV
GENERAL, THRSHZ=0.0001, PQBRAK=0.7, BLOWUP=5.0
GAUSS, ITMX=100, ACCP=1.6, ACCQ=1.6, ACCM=1.0, TOL=0.0001
NEWTON, ITMXN=300, ACCN=1.0, TOLN=0.1, VCTOLQ=0.1, VCTOLV=0.00001, DVLIM=0.99, NDVFCT=0.99
ADJUST, ADJTHR=0.005, ACCTAP=1.0, TAPLIM=0.05, SWVBND=100.0, MXTPSS=99, MXSWIM=10
TYSL, ITMXTY=20, ACCTY=1.0, TOLTY=0.00001
SOLVER, FNSL, ACTAPS=0, AREAIN=0, PHSHFT=0, DCTAPS=1, SWSHNT=1, FLATST=0, VARLIM=0, NONDIV=0
RATING, 1, "RATE1 ", "RATING SET 1                    "
RATING, 2, "RATE2 ", "RATING SET 2                    "
RATING, 3, "RATE3 ", "RATING SET 3                    "
RATING, 4, "RATE4 ", "RATING SET 4                    "
RATING, 5, "RATE5 ", "RATING SET 5                    "
RATING, 6, "RATE6 ", "RATING SET 6                    "
RATING, 7, "RATE7 ", "RATING SET 7                    "
RATING, 8, "RATE8 ", "RATING SET 8                    "
RATING, 9, "RATE9 ", "RATING SET 9                    "
RATING,10, "RATE10", "RATING SET 10                   "
RATING,11, "RATE11", "RATING SET 11                   "
RATING,12, "RATE12", "RATING SET 12                   "
0 / END OF SYSTEM-WIDE DATA, BEGIN BUS DATA
@!   I,'NAME        ', BASKV, IDE,AREA,ZONE,OWNER, VM,        VA,    NVHI,   NVLO,   EVHI,   EVLO
  1001,'FOURCORN    ', 500.0000,1,   1,   3,   1,1.02278,  18.9163,1.10000,0.90000,1.10000,0.90000
  1002,'FOURCORN    ', 345.0000,1,   1,   3,   1,1.01215,  24.0292,1.10000,0.90000,1.10000,0.90000
  1003,'FOURCORN    ', 230.0000,1,   1,  10,   1,1.01883,  21.0791,1.10000,0.90000,1.10000,0.90000
  1004,'SAN JUAN    ', 345.0000,1,   1,  10,   1,1.03000,  35.1641,1.10000,0.90000,1.10000,0.90000
  1032,'FCNGN4CC    ',  20.0000,2,   1,  10,   1,1.01313,  24.2731,1.10000,0.90000,1.10000,0.90000
  1034,'SJUAN G4    ',  20.0000,2,   1,  10,   1,1.03227,  36.0601,1.10000,0.90000,1.10000,0.90000
  1101,'CORONADO    ', 500.0000,1,   1,   3,   1,1.01000,   2.3272,1.10000,0.90000,1.10000,0.90000
  1102,'CHOLLA      ', 345.0000,1,   1,   3,   1,0.99599,  11.2941,1.10000,0.90000,1.10000,0.90000
  1131,'CORONADO    ',  20.0000,2,   1,   3,   1,1.01003,   2.6833,1.10000,0.90000,1.10000,0.90000
  1201,'MOENKOPI    ', 500.0000,1,   1,   3,   1,1.09048,  -2.8081,1.10000,0.90000,1.10000,0.90000
  1202,'NAVAJO      ', 500.0000,1,   1,   3,   1,1.08147,  -0.5150,1.10000,0.90000,1.10000,0.90000
  1232,'NAVAJO 2    ',  20.0000,3,   1,   3,   1,1.08000,   0.0000,1.10000,0.90000,1.10000,0.90000
  1301,'MEAD        ', 500.0000,1,   1,   3,   1,1.04500, -13.2517,1.10000,0.90000,1.10000,0.90000
  1302,'H ALLEN     ', 500.0000,1,   1,   9,   1,1.02847,  -8.3310,1.10000,0.90000,1.10000,0.90000
  1303,'H ALLEN     ', 345.0000,1,   1,   9,   1,1.00500,  -9.5466,1.10000,0.90000,1.10000,0.90000
  1331,'HOOVER      ',  20.0000,2,   1,   3,   1,1.04259, -13.1108,1.10000,0.90000,1.10000,0.90000
  1333,'H ALLEN     ',  20.0000,2,   1,   9,   1,1.00265,  -9.1669,1.10000,0.90000,1.10000,0.90000
  1401,'PALOVRDE    ', 500.0000,1,   1,   3,   1,1.03500,  -8.7799,1.10000,0.90000,1.10000,0.90000
  1402,'WESTWING    ', 500.0000,1,   1,   3,   1,1.05531, -10.8985,1.10000,0.90000,1.10000,0.90000
  1403,'PARKER      ', 230.0000,1,   1,   3,   1,1.03639, -10.2731,1.10000,0.90000,1.10000,0.90000
  1431,'PALOVRD2    ',  20.0000,2,   1,   3,   1,1.03164,  -7.9573,1.10000,0.90000,1.10000,0.90000
  2000,'MEXICO      ', 230.0000,1,   4,   7,   1,1.00000, -33.2239,1.10000,0.90000,1.10000,0.90000
  2030,'MEXICO      ',  20.0000,2,   4,   7,   1,0.99880, -33.0748,1.10000,0.90000,1.10000,0.90000
  2100,'IMPERIAL    ', 230.0000,1,   2,   2,   1,1.03500, -17.9313,1.10000,0.90000,1.10000,0.90000
  2130,'IMPERIAL    ',  20.0000,2,   2,   2,   1,1.03436, -17.7981,1.10000,0.90000,1.10000,0.90000
  2201,'MIGUEL      ', 500.0000,1,   2,   2,   1,1.05164, -34.3391,1.10000,0.90000,1.10000,0.90000
  2202,'MIGUEL      ', 230.0000,1,   2,   2,   1,1.05372, -35.3307,1.10000,0.90000,1.10000,0.90000
  2203,'MISSION     ', 230.0000,1,   2,   2,   1,1.05784, -37.2092,1.10000,0.90000,1.10000,0.90000
  2233,'MISSION     ',  20.0000,2,   2,   2,   1,1.05784, -37.2092,1.10000,0.90000,1.10000,0.90000
  2301,'IMPRLVLY    ', 500.0000,1,   2,   2,   1,1.03393, -23.8915,1.10000,0.90000,1.10000,0.90000
  2302,'IMPRLVLY    ', 230.0000,1,   2,   2,   1,1.03189, -24.0869,1.10000,0.90000,1.10000,0.90000
  2332,'IMPRLVLY    ',  20.0000,2,   2,   2,   1,1.03189, -24.0869,1.10000,0.90000,1.10000,0.90000
  2400,'DEVERS      ', 500.0000,1,   2,   2,   1,1.04967, -20.4562,1.10000,0.90000,1.10000,0.90000
  2401,'LUGO        ', 500.0000,1,   2,   2,   1,1.08865, -18.9977,1.10000,0.90000,1.10000,0.90000
  2402,'MIRALOMA    ', 500.0000,1,   2,   2,   1,1.07222, -22.7583,1.10000,0.90000,1.10000,0.90000
  2403,'VALLEY      ', 500.0000,1,   2,   2,   1,1.05932, -23.5251,1.10000,0.90000,1.10000,0.90000
  2404,'VINCENT     ', 500.0000,1,   2,   2,   1,1.06997, -13.3251,1.10000,0.90000,1.10000,0.90000
  2405,'SYLMAR S    ', 230.0000,1,   2,   2,   1,1.08357, -22.8297,1.10000,0.90000,1.10000,0.90000
  2406,'EAGLROCK    ', 230.0000,1,   2,   2,   1,1.04616, -23.1417,1.10000,0.90000,1.10000,0.90000
  2407,'LITEHIPE    ', 230.0000,1,   2,   2,   1,0.99005, -24.9460,1.10000,0.90000,1.10000,0.90000
  2408,'MESA CAL    ', 230.0000,1,   2,   2,   1,1.00900, -18.3524,1.10000,0.90000,1.10000,0.90000
  2409,'MIRALOMA    ', 230.0000,1,   2,   2,   1,1.05999, -25.0368,1.10000,0.90000,1.10000,0.90000
  2410,'PARDEE      ', 230.0000,1,   2,   2,   1,1.07616, -22.9151,1.10000,0.90000,1.10000,0.90000
  2411,'VINCENT     ', 230.0000,1,   2,   2,   1,1.06734, -16.0794,1.10000,0.90000,1.10000,0.90000
  2431,'LUGO        ',  20.0000,2,   2,   2,   1,1.08865, -18.9977,1.10000,0.90000,1.10000,0.90000
  2434,'VINCENT     ',  20.0000,2,   2,   2,   1,1.06734, -16.0794,1.10000,0.90000,1.10000,0.90000
  2438,'MESA CAL    ',  20.0000,2,   2,   2,   1,1.00640, -17.5360,1.10000,0.90000,1.10000,0.90000
  2439,'MIRALOMA    ',  20.0000,2,   2,   2,   1,1.05999, -25.0368,1.10000,0.90000,1.10000,0.90000
  2501,'SERRANO     ', 500.0000,1,   2,   2,   1,1.06471, -24.1562,1.10000,0.90000,1.10000,0.90000
  2502,'SERRANO     ', 230.0000,1,   2,   2,   1,1.06021, -25.4815,1.10000,0.90000,1.10000,0.90000
  2503,'S.ONOFRE    ', 230.0000,1,   2,   2,   1,1.05481, -32.9765,1.10000,0.90000,1.10000,0.90000
  2533,'S.ONOFRE    ',  20.0000,2,   2,   2,   1,1.05481, -32.9765,1.10000,0.90000,1.10000,0.90000
  2600,'ADELANTO    ', 500.0000,1,   2,   2,   1,1.09916, -18.1505,1.10000,0.90000,1.10000,0.90000
  2601,'RINALDI     ', 500.0000,1,   2,   2,   1,1.10263, -20.1384,1.10000,0.90000,1.10000,0.90000
  2602,'STA E       ', 500.0000,1,   2,   2,   1,1.09873, -22.7706,1.10000,0.90000,1.10000,0.90000
  2603,'VICTORVL    ', 500.0000,1,   2,   2,   1,1.09773, -18.1577,1.10000,0.90000,1.10000,0.90000
  2604,'INTERMT     ', 345.0000,1,   2,   2,   1,1.03000,  31.1472,1.10000,0.90000,1.10000,0.90000
  2605,'STA B1      ', 287.0000,1,   2,   2,   1,1.10291, -24.9591,1.10000,0.90000,1.10000,0.90000
  2606,'STA B2      ', 287.0000,1,   2,   2,   1,1.10291, -24.9591,1.10000,0.90000,1.10000,0.90000
  2607,'VICTORVL    ', 287.0000,1,   2,   2,   1,1.10766, -20.6868,1.10000,0.90000,1.10000,0.90000
  2608,'CASTAIC     ', 230.0000,1,   2,   2,   1,1.08162, -22.9084,1.10000,0.90000,1.10000,0.90000
  2609,'GLENDAL     ', 230.0000,1,   2,   2,   1,1.09934, -25.1493,1.10000,0.90000,1.10000,0.90000
  2610,'HAYNES      ', 230.0000,1,   2,   2,   1,1.10408, -26.1552,1.10000,0.90000,1.10000,0.90000
  2611,'OLIVE       ', 230.0000,1,   2,   2,   1,1.08850, -23.1648,1.10000,0.90000,1.10000,0.90000
  2612,'RINALDI     ', 230.0000,1,   2,   2,   1,1.08905, -23.0672,1.10000,0.90000,1.10000,0.90000
  2613,'RIVER       ', 230.0000,1,   2,   2,   1,1.10263, -26.0142,1.10000,0.90000,1.10000,0.90000
  2614,'STA BLD     ', 230.0000,1,   2,   2,   1,1.10245, -26.0093,1.10000,0.90000,1.10000,0.90000
  2615,'STA E       ', 230.0000,1,   2,   2,   1,1.09700, -24.4820,1.10000,0.90000,1.10000,0.90000
  2616,'STA F       ', 230.0000,1,   2,   2,   1,1.10261, -25.9968,1.10000,0.90000,1.10000,0.90000
  2617,'STA G       ', 230.0000,1,   2,   2,   1,1.10051, -25.4255,1.10000,0.90000,1.10000,0.90000
  2618,'STA J       ', 230.0000,1,   2,   2,   1,1.08702, -23.6695,1.10000,0.90000,1.10000,0.90000
  2619,'SYLMARLA    ', 230.0000,1,   2,   2,   1,1.08636, -22.5607,1.10000,0.90000,1.10000,0.90000
  2620,'VALLEY      ', 230.0000,1,   2,   2,   1,1.09186, -23.8021,1.10000,0.90000,1.10000,0.90000
  2621,'STA B       ', 138.0000,1,   2,   2,   1,1.10115, -25.7539,1.10000,0.90000,1.10000,0.90000
  2630,'HAYNES3G    ',  20.0000,2,   2,   2,   1,1.10408, -26.1552,1.10000,0.90000,1.10000,0.90000
  2631,'OLIVE       ',  20.0000,2,   2,   2,   1,1.08850, -23.1648,1.10000,0.90000,1.10000,0.90000
  2634,'INTERM1G    ',  20.0000,2,   2,   2,   1,1.02822,  31.2348,1.10000,0.90000,1.10000,0.90000
  2637,'OWENS G     ',  20.0000,2,   2,   2,   1,1.08889, -23.0624,1.10000,0.90000,1.10000,0.90000
  2638,'CASTAI4G    ',  20.0000,2,   2,   2,   1,1.08115, -22.8855,1.10000,0.90000,1.10000,0.90000
  2901,'ELDORADO    ', 500.0000,1,   2,   2,   1,1.11708, -12.2778,1.10000,0.90000,1.10000,0.90000
  2902,'MOHAVE      ', 500.0000,1,   2,   2,   1,1.13575, -14.4200,1.10000,0.90000,1.10000,0.90000
  3101,'EMBRCDRD    ', 230.0000,1,   2,   2,   1,1.02789,   2.5765,1.10000,0.90000,1.10000,0.90000
  3102,'MARTIN      ', 230.0000,1,   2,   2,   1,1.02677,   3.2758,1.10000,0.90000,1.10000,0.90000
  3103,'SANMATEO    ', 230.0000,1,   2,   2,   1,1.02485,   4.7342,1.10000,0.90000,1.10000,0.90000
  3104,'MARTIN      ', 115.0000,1,   2,   2,   1,1.01636,  -0.7209,1.10000,0.90000,1.10000,0.90000
  3105,'POTRERO     ', 115.0000,1,   2,   2,   1,1.00000,  -1.6607,1.10000,0.90000,1.10000,0.90000
  3133,'SANMATEO    ',  20.0000,2,   2,   2,   1,1.02485,   4.7342,1.10000,0.90000,1.10000,0.90000
  3135,'POTRERO     ',  20.0000,2,   2,   2,   1,0.99957,  -1.6395,1.10000,0.90000,1.10000,0.90000
  3201,'C.COSTA     ', 230.0000,1,   2,   2,   1,1.02643,   7.6733,1.10000,0.90000,1.10000,0.90000
  3202,'MORAGA      ', 230.0000,1,   2,   2,   1,1.02458,   7.4479,1.10000,0.90000,1.10000,0.90000
  3203,'NEWARK      ', 230.0000,1,   2,   2,   1,1.02801,   6.3203,1.10000,0.90000,1.10000,0.90000
  3204,'PITSBURG    ', 230.0000,1,   2,   2,   1,1.02046,   7.3562,1.10000,0.90000,1.10000,0.90000
  3205,'SOBRANTE    ', 230.0000,1,   2,   2,   1,1.01412,   8.9920,1.10000,0.90000,1.10000,0.90000
  3234,'PITSBURG    ',  20.0000,2,   2,   2,   1,1.01972,   7.5368,1.10000,0.90000,1.10000,0.90000
  3301,'METCALF     ', 500.0000,1,   2,   2,   1,1.03417,   6.0674,1.10000,0.90000,1.10000,0.90000
  3302,'JEFFERSN    ', 230.0000,1,   2,   2,   1,1.03599,   2.6379,1.10000,0.90000,1.10000,0.90000
  3303,'METCALF     ', 230.0000,1,   2,   2,   1,1.03738,   3.9791,1.10000,0.90000,1.10000,0.90000
  3304,'MONTAVIS    ', 230.0000,1,   2,   2,   1,1.03814,   3.0172,1.10000,0.90000,1.10000,0.90000
  3305,'RAVENSWD    ', 230.0000,1,   2,   2,   1,1.02602,   5.1655,1.10000,0.90000,1.10000,0.90000
  3333,'METCALF     ',  20.0000,2,   2,   2,   1,1.03738,   3.9791,1.10000,0.90000,1.10000,0.90000
  3401,'GREGG       ', 230.0000,1,   2,   2,   1,1.03168,  -5.2764,1.10000,0.90000,1.10000,0.90000
  3402,'HELMS PP    ', 230.0000,1,   2,   2,   1,1.00000,  -5.0576,1.10000,0.90000,1.10000,0.90000
  3403,'MC CALL     ', 230.0000,1,   2,   2,   1,1.05691,  -7.2162,1.10000,0.90000,1.10000,0.90000
  3404,'PANOCHE     ', 230.0000,1,   2,   2,   1,1.05108,  -4.8695,1.10000,0.90000,1.10000,0.90000
  3405,'WILSON      ', 230.0000,1,   2,   2,   1,1.03023,  -3.2128,1.10000,0.90000,1.10000,0.90000
  3432,'HELMS PP    ',  20.0000,2,   2,   2,   1,0.99882,  -5.0566,1.10000,0.90000,1.10000,0.90000
  3433,'MC CALL     ',  20.0000,2,   2,   2,   1,1.05691,  -7.2162,1.10000,0.90000,1.10000,0.90000
  3501,'FULTON      ', 230.0000,1,   2,   2,   1,1.00000,  30.6256,1.10000,0.90000,1.10000,0.90000
  3531,'FULTON      ',  20.0000,2,   2,   2,   1,0.99991,  31.1797,1.10000,0.90000,1.10000,0.90000
  3601,'HUMBOLDT    ', 115.0000,1,   2,   2,   1,1.05739,  24.8942,1.10000,0.90000,1.10000,0.90000
  3631,'HUMBOLDT    ',  20.0000,2,   2,   2,   1,1.05730,  24.9174,1.10000,0.90000,1.10000,0.90000
  3701,'SUMMIT      ', 115.0000,1,   1,   9,   1,1.04885,  13.9681,1.10000,0.90000,1.10000,0.90000
  3731,'SUMMIT      ',  20.0000,2,   1,   9,   1,1.04839,  13.9938,1.10000,0.90000,1.10000,0.90000
  3801,'DIABLO      ', 500.0000,1,   2,   2,   1,1.04900,   0.2518,1.10000,0.90000,1.10000,0.90000
  3802,'GATES       ', 500.0000,1,   2,   2,   1,1.06239,  -5.3816,1.10000,0.90000,1.10000,0.90000
  3803,'MIDWAY      ', 500.0000,1,   2,   2,   1,1.07089,  -8.5592,1.10000,0.90000,1.10000,0.90000
  3804,'GATES       ', 230.0000,1,   2,   2,   1,1.05713,  -6.4560,1.10000,0.90000,1.10000,0.90000
  3805,'MIDWAY      ', 230.0000,1,   2,   2,   1,1.07571,  -9.6309,1.10000,0.90000,1.10000,0.90000
  3806,'MORROBAY    ', 230.0000,1,   2,   2,   1,1.06886,  -9.4345,1.10000,0.90000,1.10000,0.90000
  3831,'DIABLO1     ',  20.0000,2,   2,   2,   1,1.04672,   0.8579,1.10000,0.90000,1.10000,0.90000
  3835,'MIDWAY      ',  20.0000,2,   2,   2,   1,1.07571,  -9.6309,1.10000,0.90000,1.10000,0.90000
  3836,'MORROBAY    ',  20.0000,2,   2,   2,   1,1.06886,  -9.4345,1.10000,0.90000,1.10000,0.90000
  3891,'GATES1      ', 500.0000,1,   2,   2,   1,1.08794, -13.5143,1.10000,0.90000,1.10000,0.90000
  3892,'MIDWAY1     ', 500.0000,1,   2,   2,   1,1.05581,  -3.1411,1.10000,0.90000,1.10000,0.90000
  3893,'MIDWAY2     ', 500.0000,1,   2,   2,   1,1.08281, -18.5455,1.10000,0.90000,1.10000,0.90000
  3894,'MIDWAY3     ', 500.0000,1,   2,   2,   1,1.05548,  -3.0502,1.10000,0.90000,1.10000,0.90000
  3895,'MIDWAY4     ', 500.0000,1,   2,   2,   1,1.08320, -18.5783,1.10000,0.90000,1.10000,0.90000
  3896,'MIDWAY5     ', 500.0000,1,   2,   2,   1,1.05590,  -2.7729,1.10000,0.90000,1.10000,0.90000
  3897,'MIDWAY6     ', 500.0000,1,   2,   2,   1,1.08396, -18.3290,1.10000,0.90000,1.10000,0.90000
  3901,'LOSBANOS    ', 500.0000,1,   2,   2,   1,1.04939,   0.5718,1.10000,0.90000,1.10000,0.90000
  3902,'MOSSLAND    ', 500.0000,1,   2,   2,   1,1.04164,   2.5254,1.10000,0.90000,1.10000,0.90000
  3903,'TESLA       ', 500.0000,1,   2,   2,   1,1.03186,  11.7162,1.10000,0.90000,1.10000,0.90000
  3904,'VACA-DIX    ', 500.0000,1,   2,   2,   1,1.02825,  12.9984,1.10000,0.90000,1.10000,0.90000
  3905,'TABLE MT    ', 500.0000,1,   2,   2,   1,1.03985,  20.5371,1.10000,0.90000,1.10000,0.90000
  3906,'ROUND MT    ', 500.0000,1,   2,   2,   1,1.07207,  26.5801,1.10000,0.90000,1.10000,0.90000
  3907,'BELLOTA     ', 230.0000,1,   2,   2,   1,1.02587,   0.3689,1.10000,0.90000,1.10000,0.90000
  3908,'BRIGHTON    ', 230.0000,1,   2,   2,   1,1.03242,   3.9576,1.10000,0.90000,1.10000,0.90000
  3909,'COLGATE     ', 230.0000,1,   2,   2,   1,1.04666,   9.5031,1.10000,0.90000,1.10000,0.90000
  3910,'CORTINA     ', 230.0000,1,   2,   2,   1,1.03748,  11.4012,1.10000,0.90000,1.10000,0.90000
  3911,'COTWDPGE    ', 230.0000,1,   2,   2,   1,1.05521,  24.2796,1.10000,0.90000,1.10000,0.90000
  3912,'GLENN       ', 230.0000,1,   2,   2,   1,1.04265,  17.2218,1.10000,0.90000,1.10000,0.90000
  3913,'GOLDHILL    ', 230.0000,1,   2,   2,   1,1.03236,   6.9890,1.10000,0.90000,1.10000,0.90000
  3914,'IGNACIO     ', 230.0000,1,   2,   2,   1,0.99306,  18.8530,1.10000,0.90000,1.10000,0.90000
  3915,'LAKEVILE    ', 230.0000,1,   2,   2,   1,1.00130,  15.7166,1.10000,0.90000,1.10000,0.90000
  3916,'LOGAN CR    ', 230.0000,1,   2,   2,   1,1.03845,  15.9158,1.10000,0.90000,1.10000,0.90000
  3917,'LOSBANOS    ', 230.0000,1,   2,   2,   1,1.05327,  -2.0586,1.10000,0.90000,1.10000,0.90000
  3918,'MOSSLAND    ', 230.0000,1,   2,   2,   1,1.04334,   1.0734,1.10000,0.90000,1.10000,0.90000
  3919,'PALERMO     ', 230.0000,1,   2,   2,   1,1.04657,  11.2835,1.10000,0.90000,1.10000,0.90000
  3920,'RIO OSO     ', 230.0000,1,   2,   2,   1,1.03987,   8.9411,1.10000,0.90000,1.10000,0.90000
  3921,'ROUND MT    ', 230.0000,1,   2,   2,   1,1.07000,  33.8683,1.10000,0.90000,1.10000,0.90000
  3922,'TABLE MT    ', 230.0000,1,   2,   2,   1,1.04329,  14.3747,1.10000,0.90000,1.10000,0.90000
  3923,'TESLA       ', 230.0000,2,   2,   2,   1,1.02203,   8.4679,1.10000,0.90000,1.10000,0.90000
  3924,'VACA-DIX    ', 230.0000,1,   2,   2,   1,1.02587,   9.8484,1.10000,0.90000,1.10000,0.90000
  3925,'COTWDPGE    ', 115.0000,1,   2,   2,   1,1.05727,  24.5897,1.10000,0.90000,1.10000,0.90000
  3926,'RIO OSO     ', 115.0000,1,   2,   2,   1,1.04272,  11.0481,1.10000,0.90000,1.10000,0.90000
  3931,'ROUND MT    ',  20.0000,2,   2,   2,   1,1.07009,  34.3064,1.10000,0.90000,1.10000,0.90000
  3932,'MOSSLAND    ',  20.0000,2,   2,   2,   1,1.04164,   2.5254,1.10000,0.90000,1.10000,0.90000
  3933,'TESLA       ',  20.0000,2,   2,   2,   1,1.02000,   8.7812,1.10000,0.90000,1.10000,0.90000
  4001,'MALIN       ', 500.0000,1,   3,  11,   1,1.08928,  29.4892,1.10000,0.90000,1.10000,0.90000
  4002,'SUMMER L    ', 500.0000,1,   3,  11,   1,1.12011,  35.5656,1.10000,0.90000,1.10000,0.90000
  4003,'BURNS       ', 500.0000,1,   3,  11,   1,1.13639,  42.3689,1.10000,0.90000,1.10000,0.90000
  4004,'GRIZZLY     ', 500.0000,1,   3,  11,   1,1.10043,  37.8819,1.10000,0.90000,1.10000,0.90000
  4005,'JOHN DAY    ', 500.0000,1,   3,  11,   1,1.08000,  46.1609,1.10000,0.90000,1.10000,0.90000
  4006,'BIG EDDY    ', 500.0000,1,   3,  11,   1,1.08174,  45.1254,1.10000,0.90000,1.10000,0.90000
  4007,'CELILOCA    ', 500.0000,1,   3,  11,   1,1.08162,  45.0864,1.10000,0.90000,1.10000,0.90000
  4008,'MALIN       ', 345.0000,1,   3,  11,   1,1.09411,  28.1922,1.10000,0.90000,1.10000,0.90000
  4009,'BIG EDDY    ', 230.0000,1,   3,  11,   1,1.08000,  44.7593,1.10000,0.90000,1.10000,0.90000
  4010,'CELILO      ', 230.0000,1,   3,  11,   1,1.08015,  44.5088,1.10000,0.90000,1.10000,0.90000
  4031,'MALIN       ',  20.0000,2,   3,  11,   1,1.08642,  29.6709,1.10000,0.90000,1.10000,0.90000
  4035,'JOHN DAY    ',  20.0000,2,   3,  11,   1,1.07436,  46.6185,1.10000,0.90000,1.10000,0.90000
  4039,'DALLES21    ',  20.0000,2,   3,  13,   1,1.07707,  45.2069,1.10000,0.90000,1.10000,0.90000
  4090,'MALIN1      ', 500.0000,1,   3,  11,   1,1.11653,  34.6902,1.10000,0.90000,1.10000,0.90000
  4091,'GRIZZLY1    ', 500.0000,1,   3,  11,   1,1.11259,  36.8975,1.10000,0.90000,1.10000,0.90000
  4092,'GRIZZLY2    ', 500.0000,1,   3,  11,   1,1.10268,  31.5594,1.10000,0.90000,1.10000,0.90000
  4093,'GRIZZLY3    ', 500.0000,1,   3,  11,   1,1.10390,  30.7450,1.10000,0.90000,1.10000,0.90000
  4094,'GRIZZLY4    ', 500.0000,1,   3,  11,   1,1.10026,  37.0050,1.10000,0.90000,1.10000,0.90000
  4095,'GRIZZLY5    ', 500.0000,1,   3,  11,   1,1.10223,  31.2029,1.10000,0.90000,1.10000,0.90000
  4096,'GRIZZLY6    ', 500.0000,1,   3,  11,   1,1.10355,  30.3424,1.10000,0.90000,1.10000,0.90000
  4097,'GRIZZLY7    ', 500.0000,1,   3,  11,   1,1.09980,  36.9581,1.10000,0.90000,1.10000,0.90000
  4101,'COULEE      ', 500.0000,1,   3,  13,   1,1.12800,  58.5054,1.10000,0.90000,1.10000,0.90000
  4102,'HANFORD     ', 500.0000,1,   3,  13,   1,1.09600,  54.0321,1.10000,0.90000,1.10000,0.90000
  4103,'BELL        ', 500.0000,1,   3,  13,   1,1.14827,  51.6657,1.10000,0.90000,1.10000,0.90000
  4104,'BELL        ', 230.0000,1,   3,  13,   1,1.12948,  46.0931,1.10000,0.90000,1.10000,0.90000
  4131,'COULEE      ',  20.0000,2,   3,  13,   1,1.12613,  59.3129,1.10000,0.90000,1.10000,0.90000
  4132,'HANFORD     ',  20.0000,2,   3,  13,   1,1.09148,  54.9464,1.10000,0.90000,1.10000,0.90000
  4201,'NORTH       ', 500.0000,1,   3,  13,   1,1.12000,  56.4811,1.10000,0.90000,1.10000,0.90000
  4202,'WCASCADE    ', 500.0000,1,   3,  13,   1,1.09168,  44.1713,1.10000,0.90000,1.10000,0.90000
  4203,'WILLAMET    ', 500.0000,1,   3,  13,   1,1.07178,  40.4547,1.10000,0.90000,1.10000,0.90000
  4204,'MERIDIAN    ', 500.0000,1,   3,  13,   1,1.09161,  30.6401,1.10000,0.90000,1.10000,0.90000
  4231,'NORTH G3    ',  20.0000,2,   3,  13,   1,1.12366,  56.9975,1.10000,0.90000,1.10000,0.90000
  4232,'WCASCADE    ',  20.0000,2,   3,  13,   1,1.09016,  44.2801,1.10000,0.90000,1.10000,0.90000
  5001,'CANADA      ', 500.0000,1,   3,   4,   1,1.05000,  80.5442,1.10000,0.90000,1.10000,0.90000
  5002,'CANALB      ', 500.0000,1,   3,   1,   1,1.05500,  89.7180,1.10000,0.90000,1.10000,0.90000
  5003,'CA230TO     ', 230.0000,1,   3,   1,   1,1.05464,  85.1301,1.10000,0.90000,1.10000,0.90000
  5004,'CA230       ', 230.0000,1,   3,   4,   1,1.06341,  64.8683,1.10000,0.90000,1.10000,0.90000
  5031,'CANAD G1    ',  20.0000,2,   3,   4,   1,1.04865,  81.9399,1.10000,0.90000,1.10000,0.90000
  5032,'CMAIN GM    ',  20.0000,2,   3,   1,   1,1.04754,  92.0973,1.10000,0.90000,1.10000,0.90000
  6101,'MIDPOINT    ', 500.0000,1,   3,   6,   1,1.06845,  51.0188,1.10000,0.90000,1.10000,0.90000
  6102,'MIDPOINT    ', 345.0000,1,   3,   6,   1,1.03000,  53.4611,1.10000,0.90000,1.10000,0.90000
  6103,'BORAH       ', 345.0000,1,   3,   6,   1,1.03094,  53.2870,1.10000,0.90000,1.10000,0.90000
...
0 / END OF BUS DATA, BEGIN LOAD DATA
@!   I,'ID',STAT,AREA,ZONE,      PL,        QL,        IP,        IQ,        YP,        YQ, OWNER,SCALE,INTRPT,  DGENP,     DGENQ, DGENF
  1002,'1 ',   1,   1,   3,    77.207,   201.395,     0.000,     0.000,     0.000,     0.000,   1,    1,  0,     0.000,     0.000,   0
  1003,'1 ',   1,   1,  10,   763.639,  -133.684,     0.000,     0.000,     0.000,     0.000,   1,    1,  0,     0.000,     0.000,   0
  1004,'1 ',   1,   1,  10,   347.786,    -1.796,     0.000,     0.000,     0.000,     0.000,   1,    1,  0,     0.000,     0.000,   0
  1101,'1 ',   1,   1,   3,  1547.024,    46.365,     0.000,     0.000,     0.000,     0.000,   1,    1,  0,     0.000,     0.000,   0
  1102,'1 ',   1,   1,   3,    62.078,    -8.251,     0.000,     0.000,     0.000,     0.000,   1,    1,  0,     0.000,     0.000,   0
  1201,'1 ',   1,   1,   3,    53.143,     0.591,     0.000,     0.000,     0.000,     0.000,   1,    1,  0,     0.000,     0.000,   0
  1202,'1 ',   1,   1,   3,   279.808,   -84.958,     0.000,     0.000,     0.000,     0.000,   1,    1,  0,     0.000,     0.000,   0
  1301,'1 ',   1,   1,   3,   893.281,  -111.507,     0.000,     0.000,     0.000,     0.000,   1,    1,  0,     0.000,     0.000,   0
  1302,'1 ',   1,   1,   9,     5.897,    -0.753,     0.000,     0.000,     0.000,     0.000,   1,    1,  0,     0.000,     0.000,   0
  1303,'1 ',   1,   1,   9,  2141.177,  -277.918,     0.000,     0.000,     0.000,     0.000,   1,    1,  0,     0.000,     0.000,   0
  1401,'1 ',   1,   1,   3,  2179.283,  -491.186,     0.000,     0.000,     0.000,     0.000,   1,    1,  0,     0.000,     0.000,   0
  1402,'1 ',   1,   1,   3,  1751.219,   185.171,     0.000,     0.000,     0.000,     0.000,   1,    1,  0,     0.000,     0.000,   0
  2000,'1 ',   1,   4,   7,   755.000,   -98.486,     0.000,     0.000,     0.000,     0.000,   1,    1,  0,     0.000,     0.000,   0
  2100,'1 ',   1,   2,   2,   190.338,   -35.864,     0.000,     0.000,     0.000,     0.000,   1,    1,  0,     0.000,     0.000,   0
  2202,'1 ',   1,   2,   2,   744.957,  -131.517,     0.000,     0.000,     0.000,     0.000,   1,    1,  0,     0.000,     0.000,   0
  2203,'1 ',   1,   2,   2,   806.121,  -130.640,     0.000,     0.000,     0.000,     0.000,   1,    1,  0,     0.000,     0.000,   0
  2400,'1 ',   1,   2,   2,   416.624,   -37.009,     0.000,     0.000,     0.000,     0.000,   1,    1,  0,     0.000,     0.000,   0
  2401,'1 ',   1,   2,   2,   425.024,   -48.283,     0.000,     0.000,     0.000,     0.000,   1,    1,  0,     0.000,     0.000,   0
  2402,'1 ',   1,   2,   2,   530.431,   -39.109,     0.000,     0.000,     0.000,     0.000,   1,    1,  0,     0.000,     0.000,   0
  2403,'1 ',   1,   2,   2,   519.603,   -18.668,     0.000,     0.000,     0.000,     0.000,   1,    1,  0,     0.000,     0.000,   0
  2405,'1 ',   1,   2,   2,   412.537,   -11.334,     0.000,     0.000,     0.000,     0.000,   1,    1,  0,     0.000,     0.000,   0
  2406,'1 ',   1,   2,   2,   370.338,    20.328,     0.000,     0.000,     0.000,     0.000,   1,    1,  0,     0.000,     0.000,   0
  2407,'1 ',   1,   2,   2,   904.711,    19.698,     0.000,     0.000,     0.000,     0.000,   1,    1,  0,     0.000,     0.000,   0
  2408,'1 ',   1,   2,   2,   873.553,    36.067,     0.000,     0.000,     0.000,     0.000,   1,    1,  0,     0.000,     0.000,   0
  2409,'1 ',   1,   2,   2,   793.992,    42.133,     0.000,     0.000,     0.000,     0.000,   1,    1,  0,     0.000,     0.000,   0
  2410,'1 ',   1,   2,   2,   792.937,   -29.102,     0.000,     0.000,     0.000,     0.000,   1,    1,  0,     0.000,     0.000,   0
  2411,'1 ',   1,   2,   2,   539.014,   -36.897,     0.000,     0.000,     0.000,     0.000,   1,    1,  0,     0.000,     0.000,   0
  2502,'1 ',   1,   2,   2,  1017.237,    38.639,     0.000,     0.000,     0.000,     0.000,   1,    1,  0,     0.000,     0.000,   0
  2503,'1 ',   1,   2,   2,   802.213,   -87.000,     0.000,     0.000,     0.000,     0.000,   1,    1,  0,     0.000,     0.000,   0
  2600,'1 ',   1,   2,   2,  -827.161,     0.000,     0.000,     0.000,     0.000,     0.000,   1,    1,  0,     0.000,     0.000,   0
  2602,'1 ',   1,   2,   2,    61.053,    -7.805,     0.000,     0.000,     0.000,     0.000,   1,    1,  0,     0.000,     0.000,   0
  2604,'1 ',   1,   2,   2,   931.492,     0.000,     0.000,     0.000,     0.000,     0.000,   1,    1,  0,     0.000,     0.000,   0
  2608,'1 ',   1,   2,   2,    61.401,    -7.894,     0.000,     0.000,     0.000,     0.000,   1,    1,  0,     0.000,     0.000,   0
  2609,'1 ',   1,   2,   2,    84.251,   -16.873,     0.000,     0.000,     0.000,     0.000,   1,    1,  0,     0.000,     0.000,   0
  2610,'1 ',   1,   2,   2,    62.074,    -8.068,     0.000,     0.000,     0.000,     0.000,   1,    1,  0,     0.000,     0.000,   0
  2611,'1 ',   1,   2,   2,    61.401,    -7.894,     0.000,     0.000,     0.000,     0.000,   1,    1,  0,     0.000,     0.000,   0
  2612,'1 ',   1,   2,   2,    74.401,   -15.166,     0.000,     0.000,     0.000,     0.000,   1,    1,  0,     0.000,     0.000,   0
  2613,'1 ',   1,   2,   2,   200.689,   -41.022,     0.000,     0.000,     0.000,     0.000,   1,    1,  0,     0.000,     0.000,   0
  2614,'1 ',   1,   2,   2,    85.899,   -17.407,     0.000,     0.000,     0.000,     0.000,   1,    1,  0,     0.000,     0.000,   0
  2615,'1 ',   1,   2,   2,   501.264,   -81.617,     0.000,     0.000,     0.000,     0.000,   1,    1,  0,     0.000,     0.000,   0
  2616,'1 ',   1,   2,   2,    73.231,   -15.086,     0.000,     0.000,     0.000,     0.000,   1,    1,  0,     0.000,     0.000,   0
  2617,'1 ',   1,   2,   2,    75.660,   -15.683,     0.000,     0.000,     0.000,     0.000,   1,    1,  0,     0.000,     0.000,   0
  2618,'1 ',   1,   2,   2,   547.335,     3.782,     0.000,     0.000,     0.000,     0.000,   1,    1,  0,     0.000,     0.000,   0
  2619,'1 ',   1,   2,   2, -1281.913,     0.000,     0.000,     0.000,     0.000,     0.000,   1,    1,  0,     0.000,     0.000,   0
  2620,'1 ',   1,   2,   2,   126.775,   -10.779,     0.000,     0.000,     0.000,     0.000,   1,    1,  0,     0.000,     0.000,   0
  2621,'1 ',   1,   2,   2,   146.068,    38.455,     0.000,     0.000,     0.000,     0.000,   1,    1,  0,     0.000,     0.000,   0
  3101,'1 ',   1,   2,   2,   199.687,   -31.552,     0.000,     0.000,     0.000,     0.000,   1,    1,  0,     0.000,     0.000,   0
  3102,'1 ',   1,   2,   2,    92.797,   -14.730,     0.000,     0.000,     0.000,     0.000,   1,    1,  0,     0.000,     0.000,   0
  3103,'1 ',   1,   2,   2,   240.875,   -34.566,     0.000,     0.000,     0.000,     0.000,   1,    1,  0,     0.000,     0.000,   0
  3104,'1 ',   1,   2,   2,   180.540,   -23.755,     0.000,     0.000,     0.000,     0.000,   1,    1,  0,     0.000,     0.000,   0
  3105,'1 ',   1,   2,   2,   137.148,   -28.135,     0.000,     0.000,     0.000,     0.000,   1,    1,  0,     0.000,     0.000,   0
  3201,'1 ',   1,   2,   2,   264.149,   -56.015,     0.000,     0.000,     0.000,     0.000,   1,    1,  0,     0.000,     0.000,   0
  3202,'1 ',   1,   2,   2,   334.917,   -47.818,     0.000,     0.000,     0.000,     0.000,   1,    1,  0,     0.000,     0.000,   0
  3203,'1 ',   1,   2,   2,   375.188,   -90.661,     0.000,     0.000,     0.000,     0.000,   1,    1,  0,     0.000,     0.000,   0
  3204,'1 ',   1,   2,   2,   377.345,   -53.245,     0.000,     0.000,     0.000,     0.000,   1,    1,  0,     0.000,     0.000,   0
  3205,'1 ',   1,   2,   2,   311.653,   -44.460,     0.000,     0.000,     0.000,     0.000,   1,    1,  0,     0.000,     0.000,   0
  3302,'1 ',   1,   2,   2,   200.325,   -50.662,     0.000,     0.000,     0.000,     0.000,   1,    1,  0,     0.000,     0.000,   0
  3303,'1 ',   1,   2,   2,   356.400,   -85.887,     0.000,     0.000,     0.000,     0.000,   1,    1,  0,     0.000,     0.000,   0
  3304,'1 ',   1,   2,   2,   307.586,   -71.527,     0.000,     0.000,     0.000,     0.000,   1,    1,  0,     0.000,     0.000,   0
  3305,'1 ',   1,   2,   2,   246.745,   -35.324,     0.000,     0.000,     0.000,     0.000,   1,    1,  0,     0.000,     0.000,   0
  3401,'1 ',   1,   2,   2,   229.858,   -58.394,     0.000,     0.000,     0.000,     0.000,   1,    1,  0,     0.000,     0.000,   0
  3403,'1 ',   1,   2,   2,   203.990,   -29.091,     0.000,     0.000,     0.000,     0.000,   1,    1,  0,     0.000,     0.000,   0
  3404,'1 ',   1,   2,   2,   175.875,   -25.263,     0.000,     0.000,     0.000,     0.000,   1,    1,  0,     0.000,     0.000,   0
  3405,'1 ',   1,   2,   2,   185.827,   -27.621,     0.000,     0.000,     0.000,     0.000,   1,    1,  0,     0.000,     0.000,   0
  3501,'1 ',   1,   2,   2,   335.400,   -47.768,     0.000,     0.000,     0.000,     0.000,   1,    1,  0,     0.000,     0.000,   0
  3601,'1 ',   1,   2,   2,    70.345,    -9.812,     0.000,     0.000,     0.000,     0.000,   1,    1,  0,     0.000,     0.000,   0
  3701,'1 ',   1,   1,   9,   155.800,    -7.787,     0.000,     0.000,     0.000,     0.000,   1,    1,  0,     0.000,     0.000,   0
  3801,'1 ',   1,   2,   2,   118.732,   -28.063,     0.000,     0.000,     0.000,     0.000,   1,    1,  0,     0.000,     0.000,   0
  3804,'1 ',   1,   2,   2,   146.061,   -36.227,     0.000,     0.000,     0.000,     0.000,   1,    1,  0,     0.000,     0.000,   0
  3805,'1 ',   1,   2,   2,   314.269,   -99.173,     0.000,     0.000,     0.000,     0.000,   1,    1,  0,     0.000,     0.000,   0
  3806,'1 ',   1,   2,   2,   185.100,   -25.948,     0.000,     0.000,     0.000,     0.000,   1,    1,  0,     0.000,     0.000,   0
  3902,'1 ',   1,   2,   2,    66.627,   -16.657,     0.000,     0.000,     0.000,     0.000,   1,    1,  0,     0.000,     0.000,   0
  3903,'1 ',   1,   2,   2,    92.298,   -13.021,     0.000,     0.000,     0.000,     0.000,   1,    1,  0,     0.000,     0.000,   0
  3907,'1 ',   1,   2,   2,   208.253,   -29.509,     0.000,     0.000,     0.000,     0.000,   1,    1,  0,     0.000,     0.000,   0
  3908,'1 ',   1,   2,   2,    90.423,   -11.568,     0.000,     0.000,     0.000,     0.000,   1,    1,  0,     0.000,     0.000,   0
  3909,'1 ',   1,   2,   2,    77.125,   -18.593,     0.000,     0.000,     0.000,     0.000,   1,    1,  0,     0.000,     0.000,   0
  3910,'1 ',   1,   2,   2,   110.537,   -16.521,     0.000,     0.000,     0.000,     0.000,   1,    1,  0,     0.000,     0.000,   0
  3911,'1 ',   1,   2,   2,    98.890,   -19.465,     0.000,     0.000,     0.000,     0.000,   1,    1,  0,     0.000,     0.000,   0
  3912,'1 ',   1,   2,   2,    75.931,     0.276,     0.000,     0.000,     0.000,     0.000,   1,    1,  0,     0.000,     0.000,   0
  3913,'1 ',   1,   2,   2,   145.650,   -19.482,     0.000,     0.000,     0.000,     0.000,   1,    1,  0,     0.000,     0.000,   0
  3914,'1 ',   1,   2,   2,   100.282,   -23.393,     0.000,     0.000,     0.000,     0.000,   1,    1,  0,     0.000,     0.000,   0
  3915,'1 ',   1,   2,   2,   111.704,   -23.631,     0.000,     0.000,     0.000,     0.000,   1,    1,  0,     0.000,     0.000,   0
  3916,'1 ',   1,   2,   2,    67.630,     0.000,     0.000,     0.000,     0.000,     0.000,   1,    1,  0,     0.000,     0.000,   0
  3917,'1 ',   1,   2,   2,   103.627,   -19.122,     0.000,     0.000,     0.000,     0.000,   1,    1,  0,     0.000,     0.000,   0
  3918,'1 ',   1,   2,   2,   140.105,   -33.367,     0.000,     0.000,     0.000,     0.000,   1,    1,  0,     0.000,     0.000,   0
  3919,'1 ',   1,   2,   2,    83.068,   -11.214,     0.000,     0.000,     0.000,     0.000,   1,    1,  0,     0.000,     0.000,   0
  3920,'1 ',   1,   2,   2,    76.853,   -10.792,     0.000,     0.000,     0.000,     0.000,   1,    1,  0,     0.000,     0.000,   0
  3921,'1 ',   1,   2,   2,    61.413,   -13.245,     0.000,     0.000,     0.000,     0.000,   1,    1,  0,     0.000,     0.000,   0
  3922,'1 ',   1,   2,   2,   112.171,   -14.357,     0.000,     0.000,     0.000,     0.000,   1,    1,  0,     0.000,     0.000,   0
  3923,'1 ',   1,   2,   2,   171.029,   -28.267,     0.000,     0.000,     0.000,     0.000,   1,    1,  0,     0.000,     0.000,   0
  3924,'1 ',   1,   2,   2,   145.236,   -20.665,     0.000,     0.000,     0.000,     0.000,   1,    1,  0,     0.000,     0.000,   0
  3926,'1 ',   1,   2,   2,   118.171,    -7.477,     0.000,     0.000,     0.000,     0.000,   1,    1,  0,     0.000,     0.000,   0
  4002,'1 ',   1,   3,  11,   100.007,   -11.945,     0.000,     0.000,     0.000,     0.000,   1,    1,  0,     0.000,     0.000,   0
  4004,'1 ',   1,   3,  11,   160.640,   -19.239,     0.000,     0.000,     0.000,     0.000,   1,    1,  0,     0.000,     0.000,   0
  4005,'1 ',   1,   3,  11,   287.745,   -87.357,     0.000,     0.000,     0.000,     0.000,   1,    1,  0,     0.000,     0.000,   0
  4008,'1 ',   1,   3,  11,   171.597,   -20.812,     0.000,     0.000,     0.000,     0.000,   1,    1,  0,     0.000,     0.000,   0
  4009,'1 ',   1,   3,  11,  1323.758,  -239.395,     0.000,     0.000,     0.000,     0.000,   1,    1,  0,     0.000,     0.000,   0
  4010,'1 ',   1,   3,  11,  1358.641,     0.000,     0.000,     0.000,     0.000,     0.000,   1,    1,  0,     0.000,     0.000,   0
  4101,'1 ',   1,   3,  13,   570.970,   -66.022,     0.000,     0.000,     0.000,     0.000,   1,    1,  0,     0.000,     0.000,   0
  4102,'1 ',   1,   3,  13,   283.860,   -36.999,     0.000,     0.000,     0.000,     0.000,   1,    1,  0,     0.000,     0.000,   0
  4103,'1 ',   1,   3,  13,     6.994,    -0.843,     0.000,     0.000,     0.000,     0.000,   1,    1,  0,     0.000,     0.000,   0
  4104,'1 ',   1,   3,  13,  1569.627,  -196.427,     0.000,     0.000,     0.000,     0.000,   1,    1,  0,     0.000,     0.000,   0
  4201,'1 ',   1,   3,  13,  3330.368,  -237.884,     0.000,     0.000,     0.000,     0.000,   1,    1,  0,     0.000,     0.000,   0
  4202,'1 ',   1,   3,  13,  2783.419,  -342.546,     0.000,     0.000,     0.000,     0.000,   1,    1,  0,     0.000,     0.000,   0
  4203,'1 ',   1,   3,  13,  2788.729,  -357.881,     0.000,     0.000,     0.000,     0.000,   1,    1,  0,     0.000,     0.000,   0
  4204,'1 ',   1,   3,  13,   614.669,   -75.053,     0.000,     0.000,     0.000,     0.000,   1,    1,  0,     0.000,     0.000,   0
  5001,'1 ',   1,   3,   4,  4932.198, -1067.575,     0.000,     0.000,     0.000,     0.000,   1,    1,  0,     0.000,     0.000,   0
  5002,'1 ',   1,   3,   1,  6156.533,  -761.115,     0.000,     0.000,     0.000,     0.000,   1,    1,  0,     0.000,     0.000,   0
  5003,'1 ',   1,   3,   1,   402.912,   -50.341,     0.000,     0.000,     0.000,     0.000,   1,    1,  0,     0.000,     0.000,   0
  6102,'1 ',   1,   3,   6,   371.216,   118.160,     0.000,     0.000,     0.000,     0.000,   1,    1,  0,     0.000,     0.000,   0
  6103,'1 ',   1,   3,   6,   140.305,   -18.045,     0.000,     0.000,     0.000,     0.000,   1,    1,  0,     0.000,     0.000,   0
  6104,'1 ',   1,   3,   6,   611.263,   -79.199,     0.000,     0.000,     0.000,     0.000,   1,    1,  0,     0.000,     0.000,   0
  6201,'1 ',   1,   3,   8,    72.144,    -8.881,     0.000,     0.000,     0.000,     0.000,   1,    1,  0,     0.000,     0.000,   0
  6202,'1 ',   1,   3,   8,    30.214,    -4.223,     0.000,     0.000,     0.000,     0.000,   1,    1,  0,     0.000,     0.000,   0
  6203,'1 ',   1,   3,   8,   226.366,   -53.365,     0.000,     0.000,     0.000,     0.000,   1,    1,  0,     0.000,     0.000,   0
  6204,'1 ',   1,   3,   8,   248.030,   -52.975,     0.000,     0.000,     0.000,     0.000,   1,    1,  0,     0.000,     0.000,   0
  6205,'1 ',   1,   3,   8,   173.138,   -29.099,     0.000,     0.000,     0.000,     0.000,   1,    1,  0,     0.000,     0.000,   0
  6301,'1 ',   1,   3,  14,   188.990,   -24.285,     0.000,     0.000,     0.000,     0.000,   1,    1,  0,     0.000,     0.000,   0
  6302,'1 ',   1,   3,  14,   218.628,   -28.362,     0.000,     0.000,     0.000,     0.000,   1,    1,  0,     0.000,     0.000,   0
  6303,'1 ',   1,   3,  14,   269.322,   -34.113,     0.000,     0.000,     0.000,     0.000,   1,    1,  0,     0.000,     0.000,   0
  6305,'1 ',   1,   3,  14,    21.113,    -6.532,     0.000,     0.000,     0.000,     0.000,   1,    1,  0,     0.000,     0.000,   0
  6401,'1 ',   1,   1,   9,   769.670,   -97.757,     0.000,     0.000,     0.000,     0.000,   1,    1,  0,     0.000,     0.000,   0
  6402,'1 ',   1,   1,   9,   128.022,   -16.607,     0.000,     0.000,     0.000,     0.000,   1,    1,  0,     0.000,     0.000,   0
  6403,'1 ',   1,   1,   9,     0.936,    -0.104,     0.000,     0.000,     0.000,     0.000,   1,    1,  0,     0.000,     0.000,   0
  6404,'1 ',   1,   1,   9,    12.997,    -1.607,     0.000,     0.000,     0.000,     0.000,   1,    1,  0,     0.000,     0.000,   0
  6501,'1 ',   1,   3,  12,    71.722,   -23.219,     0.000,     0.000,     0.000,     0.000,   1,    1,  0,     0.000,     0.000,   0
  6502,'1 ',   1,   3,  12,   571.941,  -101.026,     0.000,     0.000,     0.000,     0.000,   1,    1,  0,     0.000,     0.000,   0
  6503,'1 ',   1,   3,  12,   153.908,   -47.370,     0.000,     0.000,     0.000,     0.000,   1,    1,  0,     0.000,     0.000,   0
  6504,'1 ',   1,   3,  12,   109.134,   -14.078,     0.000,     0.000,     0.000,     0.000,   1,    1,  0,     0.000,     0.000,   0
  6505,'1 ',   1,   3,  12,     2.436,    -0.771,     0.000,     0.000,     0.000,     0.000,   1,    1,  0,     0.000,     0.000,   0
  6507,'1 ',   1,   3,  12,   196.118,    21.718,     0.000,     0.000,     0.000,     0.000,   1,    1,  0,     0.000,     0.000,   0
  6508,'1 ',   1,   3,  12,    47.927,   -15.369,     0.000,     0.000,     0.000,     0.000,   1,    1,  0,     0.000,     0.000,   0
  6509,'1 ',   1,   3,  12,     3.156,    -1.023,     0.000,     0.000,     0.000,     0.000,   1,    1,  0,     0.000,     0.000,   0
  6510,'1 ',   1,   3,  12,   732.672,    41.573,     0.000,     0.000,     0.000,     0.000,   1,    1,  0,     0.000,     0.000,   0
  7001,'1 ',   1,   3,   5,  2550.205,  -275.825,     0.000,     0.000,     0.000,     0.000,   1,    1,  0,     0.000,     0.000,   0
  7002,'1 ',   1,   3,   5,   935.227,    49.795,     0.000,     0.000,     0.000,     0.000,   1,    1,  0,     0.000,     0.000,   0
  8003,'1 ',   1,   2,   2,   132.243,   -16.047,     0.000,     0.000,     0.000,     0.000,   1,    1,  0,     0.000,     0.000,   0
  8004,'1 ',   1,   2,   2,   825.055,  -107.624,     0.000,     0.000,     0.000,     0.000,   1,    1,  0,     0.000,     0.000,   0
  8005,'1 ',   1,   2,   2,   293.618,   -39.082,     0.000,     0.000,     0.000,     0.000,   1,    1,  0,     0.000,     0.000,   0
0 / END OF LOAD DATA, BEGIN FIXED SHUNT DATA
@!   I,'ID',STATUS,  GL,        BL
0 / END OF FIXED SHUNT DATA, BEGIN GENERATOR DATA
@!   I,'ID',      PG,        QG,        QT,        QB,     VS,    IREG,     MBASE,     ZR,         ZX,         RT,         XT,     GTAP,STAT, RMPCT,      PT,        PB,    O1,    F1,  O2,    F2,  O3,    F3,  O4,    F4,WMOD, WPF,NREG
  1032,'C ',   873.000,   200.000,   200.000,  -200.000,1.01400,  1002,   895.617, 0.00000E+0, 2.00000E-1, 0.00000E+0, 0.00000E+0,1.00000,1,  100.0,   873.000,     0.000,   1,1.0000
  1032,'G ',     0.000,   344.074,   357.000,  -357.000,1.01400,  1002,  1109.031, 0.00000E+0, 2.00000E-1, 0.00000E+0, 0.00000E+0,1.00000,0,  100.0,  1050.000,     0.000,   1,1.0000
  1032,'S ',     0.000,   209.017,   255.200,  -255.200,1.01400,  1002,   687.147, 0.00000E+0, 2.00000E-1, 0.00000E+0, 0.00000E+0,1.00000,0,  100.0,   638.000,     0.000,   1,1.0000,   0,   1.0,   0,   1.0,   0,   1.0, 1, 1.0000
  1034,'C ',  1944.000,   289.629,   500.000,  -500.000,1.03000,  1004,  2007.271, 0.00000E+0, 2.00000E-1, 0.00000E+0, 0.00000E+0,1.00000,1,  100.0,  1944.000,     0.000,   1,1.0000
  1034,'G ',     0.000,   168.193,   918.000,  -918.000,1.03000,  1004,  2851.793, 0.00000E+0, 2.00000E-1, 0.00000E+0, 0.00000E+0,1.00000,0,  100.0,  2700.000,     0.000,   1,1.0000
  1034,'W ',  1381.268,   205.790,   672.800,  -672.800,1.03000,  1004,  1811.569, 0.00000E+0, 2.00000E-1, 0.00000E+0, 0.00000E+0,1.00000,1,  100.0,  1682.000,     0.000,   1,1.0000,   0,   1.0,   0,   1.0,   0,   1.0, 1, 1.0000
  1131,'C ',  1268.000,    10.771,   308.000,  -308.000,1.01000,  1101,  1304.871, 0.00000E+0, 2.00000E-1, 0.00000E+0, 0.00000E+0,1.00000,1,  100.0,  1268.000,     0.000,   1,1.0000
  1131,'G ',     0.000,   121.365,  1916.000, -1916.000,1.01000,  1101,  5292.958, 0.00000E+0, 2.00000E-1, 0.00000E+0, 0.00000E+0,1.00000,0,  100.0,  4934.000,     0.000,   1,1.0000
  1232,'C ',  1752.649,  -257.899,  1208.000, -1208.000,1.08000,  1202,  5121.503, 0.00000E+0, 2.00000E-1, 0.00000E+0, 0.00000E+0,1.00000,1,  100.0,  4977.000,     0.000,   1,1.0000
  1232,'H ',   346.829,   -51.035,   479.600,  -479.600,1.08000,  1202,  1291.363, 0.00000E+0, 2.00000E-1, 0.00000E+0, 0.00000E+0,1.00000,1,  100.0,  1199.000,     0.000,   1,1.0000
  1331,'G ',     0.000,    37.119,   841.000,  -841.000,1.04500,  1301,  2324.472, 0.00000E+0, 2.00000E-1, 0.00000E+0, 0.00000E+0,1.00000,0,  100.0,  2167.000,     0.000,   1,1.0000
  1331,'H ',   535.627,  -501.597,   931.200,  -931.200,1.04500,  1301,  2507.333, 0.00000E+0, 2.00000E-1, 0.00000E+0, 0.00000E+0,1.00000,1,  100.0,  2328.000,     0.000,   1,1.0000
  1333,'C ',   418.000,  -146.326,   167.200,  -167.200,1.00500,  1303,   450.200, 0.00000E+0, 2.00000E-1, 0.00000E+0, 0.00000E+0,1.00000,1,  100.0,   418.000,     0.000,   1,1.0000
  1333,'G ',   917.773,  -321.277,  2746.000, -2746.000,1.00500,  1303,  7529.584, 0.00000E+0, 2.00000E-1, 0.00000E+0, 0.00000E+0,1.00000,1,  100.0,  7011.000,     0.000,   1,1.0000
  1333,'S ',     0.000,   205.553,   969.200,  -969.200,1.00500,  1303,  2609.651, 0.00000E+0, 2.00000E-1, 0.00000E+0, 0.00000E+0,1.00000,0,  100.0,  2423.000,     0.000,   1,1.0000,   0,   1.0,   0,   1.0,   0,   1.0, 1, 1.0000
  1431,'G ',     0.000,   797.425,  3559.000, -3559.000,1.03500,  1401,  9836.432, 0.00000E+0, 2.00000E-1, 0.00000E+0, 0.00000E+0,1.00000,0,  100.0,  9170.000,     0.000,   1,1.0000
  1431,'N ',  3066.000,  -671.649,  1684.000, -1684.000,1.03500,  1401,  4534.309, 0.00000E+0, 2.00000E-1, 0.00000E+0, 0.00000E+0,1.00000,1,  100.0,  4210.000,     0.000,   1,1.0000
  1431,'S ',     0.000,   210.356,   967.600,  -967.600,1.03500,  1401,  2605.343, 0.00000E+0, 2.00000E-1, 0.00000E+0, 0.00000E+0,1.00000,0,  100.0,  2419.000,     0.000,   1,1.0000,   0,   1.0,   0,   1.0,   0,   1.0, 1, 1.0000
  2030,'E ',   520.000,  -239.073,   279.600,  -279.600,1.00000,  2000,   752.846, 0.00000E+0, 2.00000E-1, 0.00000E+0, 0.00000E+0,1.00000,1,  100.0,   699.000,     0.000,   1,1.0000
  2030,'G ',     0.000,   235.477,   856.000,  -856.000,1.00000,  2000,  2304.851, 0.00000E+0, 2.00000E-1, 0.00000E+0, 0.00000E+0,1.00000,0,  100.0,  2140.000,     0.000,   1,1.0000
  2130,'E ',   407.000,  -107.661,   254.000,  -254.000,1.03500,  2100,   868.952, 0.00000E+0, 2.00000E-1, 0.00000E+0, 0.00000E+0,1.00000,1,  100.0,   831.000,     0.000,   1,1.0000
  2130,'G ',     0.000,    54.601,   200.000,  -200.000,1.03500,  2100,   619.190, 0.00000E+0, 2.00000E-1, 0.00000E+0, 0.00000E+0,1.00000,0,  100.0,   586.000,     0.000,   1,1.0000
  2130,'H ',    91.034,   -24.081,   158.400,  -158.400,1.03500,  2100,   426.505, 0.00000E+0, 2.00000E-1, 0.00000E+0, 0.00000E+0,1.00000,1,  100.0,   396.000,     0.000,   1,1.0000
  2130,'S ',     0.000,    10.677,    46.000,   -46.000,1.03500,  2100,   123.859, 0.00000E+0, 2.00000E-1, 0.00000E+0, 0.00000E+0,1.00000,0,  100.0,   115.000,     0.000,   1,1.0000,   0,   1.0,   0,   1.0,   0,   1.0, 1, 1.0000
  2233,'DG',     0.000,   136.789,   304.000,  -304.000,1.00500,  2203,  1078.722, 0.00000E+0, 2.00000E-1, 0.00000E+0, 0.00000E+0,1.00000,0,  100.0,  1035.000,     0.000,   1,1.0000
  2233,'EG',     0.000,   242.861,   611.000,  -611.000,1.00500,  2203,  1935.947, 0.00000E+0, 2.00000E-1, 0.00000E+0, 0.00000E+0,1.00000,0,  100.0,  1837.000,     0.000,   1,1.0000
  2233,'TG',     0.000,    96.952,   206.000,  -206.000,1.00500,  2203,   761.397, 0.00000E+0, 2.00000E-1, 0.00000E+0, 0.00000E+0,1.00000,0,  100.0,   733.000,     0.000,   1,1.0000
  2332,'S ',     0.000,   128.939,   533.200,  -533.200,1.03500,  2302,  1435.685, 0.00000E+0, 2.00000E-1, 0.00000E+0, 0.00000E+0,1.00000,0,  100.0,  1333.000,     0.000,   1,1.0000,   0,   1.0,   0,   1.0,   0,   1.0, 1, 1.0000
  2431,'S ',     0.000,   367.573,   666.400,  -666.400,1.05000,  2431,  1794.337, 0.00000E+0, 2.00000E-1, 0.00000E+0, 0.00000E+0,1.00000,0,  100.0,  1666.000,     0.000,   1,1.0000,   0,   1.0,   0,   1.0,   0,   1.0, 1, 1.0000
  2434,'S ',     0.000,  -213.713,   500.000,  -500.000,1.02000,  2434,  1570.707, 0.00000E+0, 2.00000E-1, 0.00000E+0, 0.00000E+0,1.00000,0,  100.0,  1489.000,     0.000,   1,1.0000,   0,   1.0,   0,   1.0,   0,   1.0, 1, 1.0000
  2438,'EG',     0.000,    29.463,   728.000,  -728.000,1.00900,  2408,  2404.838, 0.00000E+0, 2.00000E-1, 0.00000E+0, 0.00000E+0,1.00000,0,  100.0,  2292.000,     0.000,   1,1.0000
  2438,'ND',     0.000,     0.000,     0.500,    -0.500,1.00900,  2408,     0.500, 0.00000E+0, 2.00000E-1, 0.00000E+0, 0.00000E+0,1.00000,0,  100.0,     0.000, -1006.000,   1,1.0000
  2438,'RG',     0.000,    70.054,  1902.000, -1902.000,1.00900,  2408,  5773.301, 0.00000E+0, 2.00000E-1, 0.00000E+0, 0.00000E+0,1.00000,0,  100.0,  5451.000,     0.000,   1,1.0000
  2438,'S ',     0.000,    14.702,   458.400,  -458.400,1.00900,  2408,  1234.280, 0.00000E+0, 2.00000E-1, 0.00000E+0, 0.00000E+0,1.00000,0,  100.0,  1146.000,     0.000,   1,1.0000,   0,   1.0,   0,   1.0,   0,   1.0, 1, 1.0000
  2438,'SG',     0.000,    52.775,  1644.000, -1644.000,1.00900,  2408,  4426.605, 0.00000E+0, 2.00000E-1, 0.00000E+0, 0.00000E+0,1.00000,0,  100.0,  4110.000,     0.000,   1,1.0000
  2438,'SH',   478.902,   -83.033,   584.000,  -584.000,1.00900,  2408,  1572.468, 0.00000E+0, 2.00000E-1, 0.00000E+0, 0.00000E+0,1.00000,1,  100.0,  1460.000,     0.000,   1,1.0000
  2438,'SW',  2414.779,  -418.678,   561.000,  -561.000,1.00900,  2408,  3258.653, 0.00000E+0, 2.00000E-1, 0.00000E+0, 0.00000E+0,1.00000,1,  100.0,  3210.000,     0.000,   1,1.0000,   0,   1.0,   0,   1.0,   0,   1.0, 1, 1.0000
  2438,'WG',     0.000,    74.740,  1910.000, -1910.000,1.00900,  2408,  6122.547, 0.00000E+0, 2.00000E-1, 0.00000E+0, 0.00000E+0,1.00000,0,  100.0,  5817.000,     0.000,   1,1.0000
  2439,'S ',     0.000,  -206.012,   666.400,  -666.400,1.02000,  2409,  1794.337, 0.00000E+0, 2.00000E-1, 0.00000E+0, 0.00000E+0,1.00000,0,  100.0,  1666.000,     0.000,   1,1.0000,   0,   1.0,   0,   1.0,   0,   1.0, 1, 1.0000
  2533,'S ',     0.000,   224.930,   799.600,  -799.600,1.00900,  2503,  2152.989, 0.00000E+0, 2.00000E-1, 0.00000E+0, 0.00000E+0,1.00000,0,  100.0,  1999.000,     0.000,   1,1.0000,   0,   1.0,   0,   1.0,   0,   1.0, 1, 1.0000
  2630,'G ',     0.000,   203.269,  1346.000, -1346.000,1.00400,  2610,  4170.195, 0.00000E+0, 2.00000E-1, 0.00000E+0, 0.00000E+0,1.00000,0,  100.0,  3947.000,     0.000,   1,1.0000
  2631,'S ',     0.000,    72.187,   208.000,  -208.000,1.01500,  2611,   560.057, 0.00000E+0, 2.00000E-1, 0.00000E+0, 0.00000E+0,1.00000,0,  100.0,   520.000,     0.000,   1,1.0000,   0,   1.0,   0,   1.0,   0,   1.0, 1, 1.0000
  2634,'C ',   323.600,  -365.463,   647.200,  -647.200,1.03000,  2604,  1742.639, 0.00000E+0, 2.00000E-1, 0.00000E+0, 0.00000E+0,1.00000,1,  100.0,  1618.000,     0.000,   1,1.0000
  2637,'H ',    19.938,   -34.800,    34.800,   -34.800,1.03000,  2612,    93.702, 0.00000E+0, 2.00000E-1, 0.00000E+0, 0.00000E+0,1.00000,1,  100.0,    87.000,     0.000,   1,1.0000
  2638,'H ',    93.271,  -100.000,   100.000,  -100.000,1.01500,  2608,   419.105, 0.00000E+0, 2.00000E-1, 0.00000E+0, 0.00000E+0,1.00000,1,  100.0,   407.000,     0.000,   1,1.0000
  3133,'NG',     0.000,    24.800,    24.800,   -24.800,1.00000,  3103,    66.776, 0.00000E+0, 2.00000E-1, 0.00000E+0, 0.00000E+0,1.00000,0,  100.0,    62.000,     0.000,   1,1.0000
  3133,'SC',     0.000,     0.000,   500.000,  -500.000,1.00000,  3103,   500.000, 0.00000E+0, 2.00000E-1, 0.00000E+0, 0.00000E+0,1.00000,0,  100.0,     0.100,     0.000,   1,1.0000
  3135,'MG',    74.042,   -85.105,   216.400,  -216.400,1.00000,  3105,   582.675, 0.00000E+0, 2.00000E-1, 0.00000E+0, 0.00000E+0,1.00000,1,  100.0,   541.000,     0.000,   1,1.0000
  3135,'NG',     0.000,     6.381,    15.200,   -15.200,1.00000,  3105,    40.927, 0.00000E+0, 2.00000E-1, 0.00000E+0, 0.00000E+0,1.00000,0,  100.0,    38.000,     0.000,   1,1.0000
  3234,'DG',     0.000,    15.032,    70.800,   -70.800,1.01000,  3204,   190.635, 0.00000E+0, 2.00000E-1, 0.00000E+0, 0.00000E+0,1.00000,0,  100.0,   177.000,     0.000,   1,1.0000
  3234,'MG',     0.000,   326.797,  1244.000, -1244.000,1.01000,  3204,  4048.845, 0.00000E+0, 2.00000E-1, 0.00000E+0, 0.00000E+0,1.00000,0,  100.0,  3853.000,     0.000,   1,1.0000
  3234,'NG',     0.000,    87.878,   382.000,  -382.000,1.01000,  3204,  1105.121, 0.00000E+0, 2.00000E-1, 0.00000E+0, 0.00000E+0,1.00000,0,  100.0,  1037.000,     0.000,   1,1.0000
  3234,'NW',   655.737,  -150.000,   150.000,  -150.000,1.01000,  3204,  1746.453, 0.00000E+0, 2.00000E-1, 0.00000E+0, 0.00000E+0,1.00000,1,  100.0,  1740.000,     0.000,   1,1.0000,   0,   1.0,   0,   1.0,   0,   1.0, 1, 1.0000
  3333,'CG',     0.000,   322.817,   398.000,  -398.000,1.00000,  3303,  1087.450, 0.00000E+0, 2.00000E-1, 0.00000E+0, 0.00000E+0,1.00000,0,  100.0,  1012.000,     0.000,   1,1.0000
  3333,'NG',     0.000,    99.448,   124.800,  -124.800,1.00000,  3303,   336.034, 0.00000E+0, 2.00000E-1, 0.00000E+0, 0.00000E+0,1.00000,0,  100.0,   312.000,     0.000,   1,1.0000
  3432,'NP',     3.534,  -234.856,  1498.400, -1498.400,1.00000,  3402,  4034.565, 0.00000E+0, 2.00000E-1, 0.00000E+0, 0.00000E+0,1.00000,1,  100.0,  3746.000, -2841.000,   1,1.0000
  3433,'NG',     0.000,    33.395,   231.000,  -231.000,1.00000,  3403,   949.527, 0.00000E+0, 2.00000E-1, 0.00000E+0, 0.00000E+0,1.00000,0,  100.0,   921.000,     0.000,   1,1.0000
  3433,'S ',     0.000,    51.724,   570.400,  -570.400,1.00000,  3403,  1535.849, 0.00000E+0, 2.00000E-1, 0.00000E+0, 0.00000E+0,1.00000,0,  100.0,  1426.000,     0.000,   1,1.0000,   0,   1.0,   0,   1.0,   0,   1.0, 1, 1.0000
  3531,'CE',  1424.000,    -6.202,   569.600,  -569.600,1.00000,  3501,  1533.695, 0.00000E+0, 2.00000E-1, 0.00000E+0, 0.00000E+0,1.00000,1,  100.0,  1424.000,     0.000,   1,1.0000
  3531,'NE',   509.980,    -2.221,   213.200,  -213.200,1.00000,  3501,   574.059, 0.00000E+0, 2.00000E-1, 0.00000E+0, 0.00000E+0,1.00000,1,  100.0,   533.000,     0.000,   1,1.0000
  3531,'NH',     0.000,     1.321,     9.600,    -9.600,1.00000,  3501,    25.849, 0.00000E+0, 2.00000E-1, 0.00000E+0, 0.00000E+0,1.00000,0,  100.0,    24.000,     0.000,   1,1.0000
  3631,'NB',    90.747,   -20.000,    20.000,   -20.000,1.01500,  3601,    98.061, 0.00000E+0, 2.00000E-1, 0.00000E+0, 0.00000E+0,1.00000,1,  100.0,    96.000,     0.000,   1,1.0000
  3631,'NG',     0.000,   -11.445,    74.000,   -74.000,1.01500,  3601,   222.657, 0.00000E+0, 2.00000E-1, 0.00000E+0, 0.00000E+0,1.00000,0,  100.0,   210.000,     0.000,   1,1.0000
  3731,'NH',    98.484,   -97.200,    97.200,   -97.200,1.00000,  3701,   261.719, 0.00000E+0, 2.00000E-1, 0.00000E+0, 0.00000E+0,1.00000,1,  100.0,   243.000,     0.000,   1,1.0000
  3831,'NN',  2323.000,  -465.025,   929.200,  -929.200,1.04900,  3801,  2501.948, 0.00000E+0, 2.00000E-1, 0.00000E+0, 0.00000E+0,1.00000,1,  100.0,  2323.000,     0.000,   1,1.0000
  3835,'ND',     0.000,     0.000,     0.500,    -0.500,1.03500,  3805,     0.500, 0.00000E+0, 2.00000E-1, 0.00000E+0, 0.00000E+0,1.00000,0,  100.0,     0.000,  -510.000,   1,1.0000
  3835,'NG',     0.000,    82.527,   662.000,  -662.000,1.03500,  3805,  2130.462, 0.00000E+0, 2.00000E-1, 0.00000E+0, 0.00000E+0,1.00000,0,  100.0,  2025.000,     0.000,   1,1.0000
  3835,'S ',     0.000,    54.057,   500.000,  -500.000,1.03500,  3805,  1423.688, 0.00000E+0, 2.00000E-1, 0.00000E+0, 0.00000E+0,1.00000,0,  100.0,  1333.000,     0.000,   1,1.0000,   0,   1.0,   0,   1.0,   0,   1.0, 1, 1.0000
  3836,'DG',     0.000,    16.516,   476.000,  -476.000,1.01900,  3806,  1570.855, 0.00000E+0, 2.00000E-1, 0.00000E+0, 0.00000E+0,1.00000,0,  100.0,  1497.000,     0.000,   1,1.0000
  3931,'NB',   381.468,     5.787,   151.000,  -151.000,1.07000,  3921,   586.762, 0.00000E+0, 2.00000E-1, 0.00000E+0, 0.00000E+0,1.00000,1,  100.0,   567.000,     0.000,   1,1.0000
  3931,'NH',  1369.345,    20.775,  1150.000, -1150.000,1.07000,  3921,  3096.470, 0.00000E+0, 2.00000E-1, 0.00000E+0, 0.00000E+0,1.00000,1,  100.0,  2875.000,     0.000,   1,1.0000
  3932,'S ',     0.000,   -47.754,   570.400,  -570.400,1.00000,  3902,  1535.849, 0.00000E+0, 2.00000E-1, 0.00000E+0, 0.00000E+0,1.00000,0,  100.0,  1426.000,     0.000,   1,1.0000,   0,   1.0,   0,   1.0,   0,   1.0, 1, 1.0000
  3933,'CG',     0.000,    86.032,   346.000,  -346.000,1.02000,  3933,   931.633, 0.00000E+0, 2.00000E-1, 0.00000E+0, 0.00000E+0,1.00000,0,  100.0,   865.000,     0.000,   1,1.0000
  3933,'NB',   325.853,   -77.000,    77.000,   -77.000,1.02000,  3933,   353.488, 0.00000E+0, 2.00000E-1, 0.00000E+0, 0.00000E+0,1.00000,1,  100.0,   345.000,     0.000,   1,1.0000
  3933,'ND',     0.000,     0.000,     0.500,    -0.500,1.02000,  3933,     0.500, 0.00000E+0, 2.00000E-1, 0.00000E+0, 0.00000E+0,1.00000,0,  100.0,     0.000,  -449.000,   1,1.0000
  3933,'NG',     0.000,   191.460,   500.000,  -500.000,1.02000,  3933,  1990.811, 0.00000E+0, 2.00000E-1, 0.00000E+0, 0.00000E+0,1.00000,0,  100.0,  1927.000,     0.000,   1,1.0000
  3933,'NH',   626.197,  -256.063,  1089.600, -1089.600,1.02000,  3933,  2933.838, 0.00000E+0, 2.00000E-1, 0.00000E+0, 0.00000E+0,1.00000,1,  100.0,  2724.000,     0.000,   1,1.0000
  3933,'NW',   188.179,   -76.950,   200.000,  -200.000,1.02000,  3933,   766.551, 0.00000E+0, 2.00000E-1, 0.00000E+0, 0.00000E+0,1.00000,1,  100.0,   740.000,     0.000,   1,1.0000,   0,   1.0,   0,   1.0,   0,   1.0, 1, 1.0000
  3933,'S ',     0.000,   132.443,   533.200,  -533.200,1.02000,  3933,  1435.685, 0.00000E+0, 2.00000E-1, 0.00000E+0, 0.00000E+0,1.00000,0,  100.0,  1333.000,     0.000,   1,1.0000,   0,   1.0,   0,   1.0,   0,   1.0, 1, 1.0000
  4031,'G ',     0.000,   502.000,   502.000,  -502.000,1.08000,  4001,  2756.103, 0.00000E+0, 2.00000E-1, 0.00000E+0, 0.00000E+0,1.00000,0,  100.0,  2710.000,     0.000,   1,1.0000
  4031,'H ',   733.185,  -380.800,   380.800,  -380.800,1.08000,  4001,  1025.335, 0.00000E+0, 2.00000E-1, 0.00000E+0, 0.00000E+0,1.00000,1,  100.0,   952.000,     0.000,   1,1.0000
  4031,'S ',     0.000,   109.387,   170.800,  -170.800,1.08000,  4001,   459.893, 0.00000E+0, 2.00000E-1, 0.00000E+0, 0.00000E+0,1.00000,0,  100.0,   427.000,     0.000,   1,1.0000,   0,   1.0,   0,   1.0,   0,   1.0, 1, 1.0000
  4031,'W ',    17.198,  -240.000,   240.000,  -240.000,1.08000,  4001,   678.841, 0.00000E+0, 2.00000E-1, 0.00000E+0, 0.00000E+0,1.00000,1,  100.0,   635.000,     0.000,   1,1.0000,   0,   1.0,   0,   1.0,   0,   1.0, 1, 1.0000
  4035,'C ',   642.000,  -255.000,   255.000,  -255.000,1.08000,  4005,   690.789, 0.00000E+0, 2.00000E-1, 0.00000E+0, 0.00000E+0,1.00000,1,  100.0,   642.000,     0.000,   1,1.0000
  4035,'G ',     0.000,    19.364,   307.000,  -307.000,1.08000,  4005,  1684.216, 0.00000E+0, 2.00000E-1, 0.00000E+0, 0.00000E+0,1.00000,0,  100.0,  1656.000,     0.000,   1,1.0000
  4035,'H ',  1108.058,  -867.739,  1428.800, -1428.800,1.08000,  4005,  3847.162, 0.00000E+0, 2.00000E-1, 0.00000E+0, 0.00000E+0,1.00000,1,  100.0,  3572.000,     0.000,   1,1.0000
  4035,'W ',   103.384,   -80.962,   800.000,  -800.000,1.08000,  4005,  2699.275, 0.00000E+0, 2.00000E-1, 0.00000E+0, 0.00000E+0,1.00000,1,  100.0,  2578.000,     0.000,   1,1.0000,   0,   1.0,   0,   1.0,   0,   1.0, 1, 1.0000
  4039,'G ',     0.000,    31.097,    60.000,   -60.000,1.08000,  4009,   161.555, 0.00000E+0, 2.00000E-1, 0.00000E+0, 0.00000E+0,1.00000,0,  100.0,   150.000,     0.000,   1,1.0000
  4039,'H ',  1735.462,  -595.746,  1135.600, -1135.600,1.08000,  4009,  3057.697, 0.00000E+0, 2.00000E-1, 0.00000E+0, 0.00000E+0,1.00000,1,  100.0,  2839.000,     0.000,   1,1.0000
  4039,'W ',    81.916,   -28.120,   500.000,  -500.000,1.08000,  4009,  1383.510, 0.00000E+0, 2.00000E-1, 0.00000E+0, 0.00000E+0,1.00000,1,  100.0,  1290.000,     0.000,   1,1.0000,   0,   1.0,   0,   1.0,   0,   1.0, 1, 1.0000
  4131,'B ',   671.541,   -74.149,   150.000,  -150.000,1.12800,  4101,   726.651, 0.00000E+0, 2.00000E-1, 0.00000E+0, 0.00000E+0,1.00000,1,  100.0,   711.000,     0.000,   1,1.0000
  4131,'H ',  2899.939,  -320.201,  5045.200, -5045.200,1.12800,  4101, 13584.617, 0.00000E+0, 2.00000E-1, 0.00000E+0, 0.00000E+0,1.00000,1,  100.0, 12613.000,     0.000,   1,1.0000
  4131,'W ',     8.562,    -0.945,   120.000,  -120.000,1.12800,  4101,   799.062, 0.00000E+0, 2.00000E-1, 0.00000E+0, 0.00000E+0,1.00000,1,  100.0,   790.000,     0.000,   1,1.0000,   0,   1.0,   0,   1.0,   0,   1.0, 1, 1.0000
  4132,'G ',     0.000,   311.261,   868.000,  -868.000,1.09600,  4102,  2337.162, 0.00000E+0, 2.00000E-1, 0.00000E+0, 0.00000E+0,1.00000,0,  100.0,  2170.000,     0.000,   1,1.0000
  4132,'H ',  2608.266,  -723.638,  2215.600, -2215.600,1.09600,  4102,  5965.686, 0.00000E+0, 2.00000E-1, 0.00000E+0, 0.00000E+0,1.00000,1,  100.0,  5539.000,     0.000,   1,1.0000
  4132,'N ',  1200.000,  -231.000,   231.000,  -231.000,1.09600,  4102,  1222.031, 0.00000E+0, 2.00000E-1, 0.00000E+0, 0.00000E+0,1.00000,1,  100.0,  1200.000,     0.000,   1,1.0000
  4132,'W ',     9.456,    -2.623,   120.000,  -120.000,1.09600,  4102,   323.110, 0.00000E+0, 2.00000E-1, 0.00000E+0, 0.00000E+0,1.00000,1,  100.0,   300.000,     0.000,   1,1.0000,   0,   1.0,   0,   1.0,   0,   1.0, 1, 1.0000
  4231,'C ',  1460.000,   536.165,   584.000,  -584.000,1.12000,  4201,  1572.468, 0.00000E+0, 2.00000E-1, 0.00000E+0, 0.00000E+0,1.00000,1,  100.0,  1460.000,     0.000,   1,1.0000
  4231,'G ',     0.000,   267.538,   388.000,  -388.000,1.12000,  4201,  1044.722, 0.00000E+0, 2.00000E-1, 0.00000E+0, 0.00000E+0,1.00000,0,  100.0,   970.000,     0.000,   1,1.0000
  4231,'H ',   808.519,   296.917,  1406.800, -1406.800,1.12000,  4201,  3787.925, 0.00000E+0, 2.00000E-1, 0.00000E+0, 0.00000E+0,1.00000,1,  100.0,  3517.000,     0.000,   1,1.0000
...